Version 4
SHEET 1 880 680
WIRE 224 192 112 192
WIRE 320 192 224 192
WIRE 112 224 112 192
WIRE 320 240 320 192
WIRE 64 256 16 256
WIRE 272 272 160 272
WIRE 384 272 352 272
WIRE 64 288 16 288
WIRE 112 352 112 320
WIRE 224 352 112 352
WIRE 320 352 320 304
WIRE 320 352 224 352
FLAG 16 256 A
IOPIN 16 256 In
FLAG 16 288 B
IOPIN 16 288 In
FLAG 224 352 Vss
IOPIN 224 352 In
FLAG 224 192 Vdd
IOPIN 224 192 In
FLAG 384 272 Y
IOPIN 384 272 Out
SYMBOL NAND 80 272 R0
SYMATTR InstName X1
SYMBOL not 304 272 R0
SYMATTR InstName X2
