Version 4
SHEET 1 1468 1048
FLAG 1136 432 d0
IOPIN 1136 432 In
FLAG 1136 400 d1
IOPIN 1136 400 In
FLAG 1136 368 d2
IOPIN 1136 368 In
FLAG 1136 336 d3
IOPIN 1136 336 In
FLAG 240 768 0
FLAG 144 624 0
FLAG 240 512 0
FLAG 144 368 0
FLAG 240 688 d3
IOPIN 240 688 In
FLAG 144 544 d2
IOPIN 144 544 In
FLAG 240 432 d1
IOPIN 240 432 In
FLAG 144 288 d0
IOPIN 144 288 In
FLAG 1136 464 Vref
IOPIN 1136 464 In
FLAG 1136 496 Vdd
IOPIN 1136 496 In
FLAG 1136 528 Vss
IOPIN 1136 528 In
FLAG 1296 432 Vout
IOPIN 1296 432 Out
FLAG 928 752 0
FLAG 1024 752 0
FLAG 1024 672 Vss
IOPIN 1024 672 In
FLAG 928 672 Vdd
IOPIN 928 672 In
FLAG 1152 752 0
FLAG 1152 672 Vref
IOPIN 1152 672 In
SYMBOL voltage 144 272 R0
WINDOW 3 74 59 Left 2
WINDOW 123 0 0 Left 0
WINDOW 39 0 0 Left 0
SYMATTR Value PULSE(0 3.3 3.90625u 1n 1n 3.90625u 7.8125u)
SYMATTR InstName V1
SYMBOL voltage 240 416 R0
WINDOW 3 74 59 Left 2
WINDOW 123 0 0 Left 0
WINDOW 39 0 0 Left 0
SYMATTR Value PULSE(0 3.3 7.8125u 1n 1n 7.8125u 15.625u)
SYMATTR InstName V2
SYMBOL voltage 144 528 R0
WINDOW 3 74 59 Left 2
WINDOW 123 0 0 Left 0
WINDOW 39 0 0 Left 0
SYMATTR Value PULSE(0 3.3 15.625u 1n 1n 15.625u 31.25u)
SYMATTR InstName V3
SYMBOL voltage 240 672 R0
WINDOW 3 74 59 Left 2
WINDOW 123 0 0 Left 0
WINDOW 39 0 0 Left 0
SYMATTR Value PULSE(0 3.3 31.25u 1n 1n 31.25u 62.5u)
SYMATTR InstName V4
SYMBOL voltage 928 656 R0
WINDOW 123 0 0 Left 0
WINDOW 39 0 0 Left 0
SYMATTR InstName V5
SYMATTR Value 5
SYMBOL voltage 1024 656 R0
WINDOW 123 0 0 Left 0
WINDOW 39 0 0 Left 0
SYMATTR InstName V6
SYMATTR Value -5
SYMBOL voltage 1152 656 R0
WINDOW 123 0 0 Left 0
WINDOW 39 0 0 Left 0
SYMATTR InstName V7
SYMATTR Value 3.3
SYMBOL current_ladder4 1216 432 R0
SYMATTR InstName X1
TEXT 1344 600 Left 2 !.tran 0.1m
