Version 4
SHEET 1 880 680
WIRE 240 128 208 128
WIRE 368 128 336 128
WIRE 480 128 464 128
WIRE 512 128 480 128
WIRE 240 176 160 176
WIRE 368 176 352 176
WIRE 480 208 480 128
WIRE 160 224 160 176
WIRE 128 256 96 256
WIRE 448 256 416 256
WIRE 544 256 512 256
WIRE 160 336 160 304
WIRE 160 336 80 336
WIRE 352 336 352 176
WIRE 352 336 160 336
WIRE 480 336 480 288
WIRE 512 336 480 336
FLAG 80 336 Clk
IOPIN 80 336 In
FLAG 208 128 D
IOPIN 208 128 In
FLAG 512 128 Q
IOPIN 512 128 Out
FLAG 32 464 0
FLAG 96 256 Vdd
IOPIN 96 256 In
FLAG 112 464 Vdd
IOPIN 112 464 In
FLAG 512 336 Q~
IOPIN 512 336 Out
FLAG 544 256 Vdd
IOPIN 544 256 In
FLAG 416 256 0
FLAG 192 256 0
SYMBOL D-Latch 288 160 R0
SYMATTR InstName X1
SYMBOL D-Latch 416 160 R0
SYMATTR InstName X2
SYMBOL NOT 160 272 R270
SYMATTR InstName X3
SYMBOL voltage 128 464 R90
WINDOW 123 0 0 Left 0
WINDOW 39 0 0 Left 0
SYMATTR InstName V3
SYMATTR Value 3.3
SYMBOL NOT 480 240 R90
SYMATTR InstName X4
TEXT 264 152 Left 1 ;master
TEXT 400 152 Left 1 ;slave
