Version 4
SHEET 1 880 824
WIRE 144 128 -48 128
WIRE 368 128 240 128
WIRE 480 128 464 128
WIRE 512 128 480 128
WIRE 144 176 64 176
WIRE 368 176 336 176
WIRE 64 224 64 176
WIRE 32 256 0 256
WIRE 144 256 96 256
WIRE 560 256 560 224
WIRE 144 272 144 256
WIRE 480 288 480 128
WIRE 512 288 480 288
WIRE 640 288 592 288
WIRE 64 336 64 304
WIRE 64 336 -64 336
WIRE 336 336 336 176
WIRE 336 336 64 336
WIRE 560 352 560 320
FLAG -64 336 Clk
IOPIN -64 336 In
FLAG -48 128 D
IOPIN -48 128 In
FLAG 512 128 Q
IOPIN 512 128 Out
FLAG 144 272 0
FLAG -496 272 0
FLAG -384 272 0
FLAG -272 272 0
FLAG 0 256 Vdd
IOPIN 0 256 In
FLAG -272 192 Vdd
IOPIN -272 192 In
FLAG -384 192 D
IOPIN -384 192 In
FLAG -496 192 Clk
IOPIN -496 192 In
FLAG 640 288 Q~
IOPIN 640 288 Out
FLAG 560 224 Vdd
IOPIN 560 224 In
FLAG 560 352 0
SYMBOL D-Latch 192 160 R0
SYMATTR InstName X1
SYMBOL D-Latch 416 160 R0
SYMATTR InstName X2
SYMBOL NOT 64 272 R270
SYMATTR InstName X3
SYMBOL voltage -496 176 R0
WINDOW 3 -58 24 VRight 2
WINDOW 123 0 0 Left 0
WINDOW 39 0 0 Left 0
SYMATTR Value PULSE(0 3.3 3.90625u 1n 1n 3.90625u 7.8125u)
SYMATTR InstName V1
SYMBOL voltage -384 176 R0
WINDOW 3 -40 95 VRight 2
WINDOW 123 0 0 Left 0
WINDOW 39 0 0 Left 0
SYMATTR Value PULSE(0 3.3 6.8125u 1n 1n 8.8125u 15.625u)
SYMATTR InstName V2
SYMBOL voltage -272 176 R0
WINDOW 123 0 0 Left 0
WINDOW 39 0 0 Left 0
SYMATTR InstName V3
SYMATTR Value 3.3
SYMBOL NOT 544 288 R0
SYMATTR InstName X4
TEXT -216 32 Left 2 !.tran 0.1m
TEXT 152 80 Left 2 ;master
TEXT 392 96 Left 2 ;slave
TEXT -544 -8 Left 2 !.ic V(Q) = 0\n.ic V(Q~) = 0
