Version 4
SHEET 1 880 680
WIRE 416 -32 240 -32
WIRE 416 0 416 -32
WIRE 32 80 -144 80
WIRE 80 80 32 80
WIRE 240 80 240 -32
WIRE 16 96 -48 96
WIRE -144 112 -144 80
WIRE -48 112 -48 96
WIRE 80 112 80 80
WIRE 144 112 80 112
WIRE 16 144 16 96
WIRE 32 144 16 144
WIRE 144 144 32 144
WIRE 368 144 336 144
WIRE 416 144 368 144
WIRE 144 176 48 176
WIRE 16 224 -48 224
WIRE 48 224 48 176
WIRE 48 224 16 224
WIRE -48 240 -48 224
FLAG 240 208 0
FLAG 416 80 0
FLAG 416 144 Y
IOPIN 416 144 Out
FLAG -48 192 0
FLAG -144 192 0
FLAG -48 320 0
FLAG 16 224 sel
FLAG 32 144 B
FLAG 32 80 A
FLAG 368 144 y
SYMBOL voltage 416 -16 R0
WINDOW 123 0 0 Left 0
WINDOW 39 0 0 Left 0
SYMATTR InstName V1
SYMATTR Value 3.3
SYMBOL voltage -144 96 R0
WINDOW 3 -618 36 Left 2
WINDOW 123 0 0 Left 0
WINDOW 39 0 0 Left 0
SYMATTR Value PULSE(0,3.3,3.90625u,1n,1n,3.90625u,7.8125u)
SYMATTR InstName A
SYMBOL voltage -48 96 R0
WINDOW 3 -685 86 Left 2
WINDOW 123 0 0 Left 0
WINDOW 39 0 0 Left 0
SYMATTR Value PULSE(0,3.3,6.8125u,1n,1n,8.8125u,15.625u)
SYMATTR InstName B
SYMBOL voltage -48 224 R0
WINDOW 3 -674 7 Left 2
WINDOW 123 0 0 Left 0
WINDOW 39 0 0 Left 0
SYMATTR Value PULSE(0,3.3,15.625u,1n,1n,15.625u,31.25u)
SYMATTR InstName Sel
SYMBOL mux2-1 256 144 R0
SYMATTR InstName X2
TEXT -640 80 Left 2 !.tran 0.1m
