Version 4
SHEET 1 880 872
FLAG 224 -32 Vdd
IOPIN 224 -32 In
FLAG 128 64 Sel
IOPIN 128 64 In
FLAG 320 32 Q0
IOPIN 320 32 Out
FLAG 128 32 A0
IOPIN 128 32 In
FLAG 128 0 0
FLAG 224 96 0
FLAG 224 224 Vdd
IOPIN 224 224 In
FLAG 128 320 Sel
IOPIN 128 320 In
FLAG 320 288 Q1
IOPIN 320 288 Out
FLAG 128 288 A1
IOPIN 128 288 In
FLAG 128 256 0
FLAG 224 352 0
FLAG 224 464 Vdd
IOPIN 224 464 In
FLAG 128 560 Sel
IOPIN 128 560 In
FLAG 320 528 Q2
IOPIN 320 528 Out
FLAG 128 528 A2
IOPIN 128 528 In
FLAG 128 496 0
FLAG 224 592 0
FLAG 224 704 Vdd
IOPIN 224 704 In
FLAG 128 800 Sel
IOPIN 128 800 In
FLAG 320 768 Q3
IOPIN 320 768 Out
FLAG 128 768 A3
IOPIN 128 768 In
FLAG 128 736 0
FLAG 224 832 0
SYMBOL MUX2-1 240 32 R0
SYMATTR InstName X1
SYMBOL MUX2-1 240 288 R0
SYMATTR InstName X2
SYMBOL MUX2-1 240 528 R0
SYMATTR InstName X3
SYMBOL MUX2-1 240 768 R0
SYMATTR InstName X4
