Version 4
SHEET 1 2408 1692
FLAG 432 160 d0
IOPIN 432 160 In
FLAG 608 368 d1
IOPIN 608 368 In
FLAG 608 336 dk1
IOPIN 608 336 In
FLAG 432 128 dk0
IOPIN 432 128 In
FLAG 608 400 Sel
IOPIN 608 400 In
FLAG 432 192 Sel
IOPIN 432 192 In
FLAG 528 96 Vdd
IOPIN 528 96 In
FLAG 704 304 Vdd
IOPIN 704 304 In
FLAG 432 608 d2
IOPIN 432 608 In
FLAG 432 576 dk2
IOPIN 432 576 In
FLAG 432 640 Sel
IOPIN 432 640 In
FLAG 624 816 d3
IOPIN 624 816 In
FLAG 624 784 dk3
IOPIN 624 784 In
FLAG 624 848 Sel
IOPIN 624 848 In
FLAG 528 544 Vdd
IOPIN 528 544 In
FLAG 720 752 Vdd
IOPIN 720 752 In
FLAG 528 672 Vss
IOPIN 528 672 In
FLAG 704 432 Vss
IOPIN 704 432 In
FLAG 528 224 Vss
IOPIN 528 224 In
FLAG 720 880 Vss
IOPIN 720 880 In
FLAG 624 160 B0
IOPIN 624 160 Out
FLAG 800 368 B1
IOPIN 800 368 Out
FLAG 624 608 B2
IOPIN 624 608 Out
FLAG 816 816 B3
IOPIN 816 816 Out
SYMBOL MUX2-1 544 160 R0
SYMATTR InstName X5
SYMBOL MUX2-1 720 368 R0
SYMATTR InstName X7
SYMBOL MUX2-1 544 608 R0
SYMATTR InstName X10
SYMBOL MUX2-1 736 816 R0
SYMATTR InstName X11
