Version 4
SHEET 1 880 920
WIRE 144 128 112 128
WIRE 320 144 304 144
WIRE 144 160 112 160
FLAG 224 208 0
FLAG -192 192 0
FLAG -208 304 0
FLAG -128 304 A
IOPIN -128 304 In
FLAG 112 160 B
IOPIN 112 160 In
FLAG 112 128 A
IOPIN 112 128 In
FLAG -144 448 B
IOPIN -144 448 In
FLAG -192 112 Vdd
IOPIN -192 112 In
FLAG 224 80 Vdd
IOPIN 224 80 In
FLAG 320 144 Vout
IOPIN 320 144 Out
FLAG -224 448 0
SYMBOL NOR 224 144 R0
SYMATTR InstName X1
SYMBOL voltage -192 96 R0
WINDOW 123 0 0 Left 0
WINDOW 39 0 0 Left 0
SYMATTR InstName Vdd
SYMATTR Value 3.3
SYMBOL voltage -112 304 R90
WINDOW 3 1 -594 VRight 2
WINDOW 123 0 0 Left 0
WINDOW 39 0 0 Left 0
SYMATTR Value PULSE(0 3.3 3.90625u 1n 1n 3.90625u 7.8125u)
SYMATTR InstName A
SYMBOL voltage -128 448 R90
WINDOW 0 -32 56 VBottom 2
WINDOW 3 -12 -332 VTop 2
WINDOW 123 0 0 Left 0
WINDOW 39 0 0 Left 0
SYMATTR InstName B
SYMATTR Value PULSE(0 3.3 6.8125u 1n 1n 8.8125u 15.625u)
TEXT -48 48 Left 2 !.tran 0.1m
TEXT -424 96 Left 2 !.ic V(Vout) = 0
