Version 4
SHEET 1 880 680
FLAG 288 128 Vout
IOPIN 288 128 Out
FLAG -32 112 A
IOPIN -32 112 In
FLAG 208 128 A
IOPIN 208 128 In
FLAG 256 96 Vdd
IOPIN 256 96 In
FLAG 64 112 Vdd
IOPIN 64 112 In
FLAG 256 160 0
FLAG -32 192 0
FLAG 64 192 0
SYMBOL voltage -32 96 R0
WINDOW 3 -54 -15 VRight 2
WINDOW 123 0 0 Left 0
WINDOW 39 0 0 Left 0
SYMATTR Value PULSE(0,3.3,3.90625u,1n,1n,3.90625u,7.8125u)
SYMATTR InstName A
SYMBOL voltage 64 96 R0
WINDOW 123 0 0 Left 0
WINDOW 39 0 0 Left 0
SYMATTR InstName Vdd
SYMATTR Value 3.3
SYMBOL not 240 128 R0
SYMATTR InstName X1
TEXT 152 16 Left 2 !.tran 0.1m
