Version 4
SHEET 1 880 680
WIRE 48 64 0 64
WIRE 112 64 48 64
WIRE 256 64 112 64
WIRE 112 80 112 64
WIRE 64 112 32 112
WIRE 256 112 256 64
WIRE 208 144 144 112
WIRE 320 160 304 160
WIRE 112 176 112 144
WIRE 112 192 112 176
WIRE 64 224 32 224
WIRE 144 224 208 176
WIRE 256 224 112 176
WIRE 256 224 256 208
WIRE 288 224 256 224
WIRE 48 272 48 64
WIRE 112 272 112 256
WIRE 112 272 48 272
FLAG 32 112 A
IOPIN 32 112 In
FLAG 32 224 B
IOPIN 32 224 In
FLAG 320 160 Out
IOPIN 320 160 Out
FLAG 0 64 Vdd
FLAG 288 224 Vss
SYMBOL NAND 224 160 R0
SYMATTR InstName X1
SYMBOL NOT 96 112 R0
SYMATTR InstName X2
SYMBOL NOT 96 224 M180
SYMATTR InstName X3
