Version 4
SHEET 1 880 920
WIRE 224 128 192 128
WIRE 320 144 288 144
WIRE 224 160 192 160
FLAG 304 192 0
FLAG -192 192 0
FLAG -208 304 0
FLAG -128 304 A
IOPIN -128 304 In
FLAG 192 160 B
IOPIN 192 160 In
FLAG 192 128 A
IOPIN 192 128 In
FLAG -128 432 B
IOPIN -128 432 In
FLAG -192 112 Vdd
IOPIN -192 112 In
FLAG 304 96 Vdd
IOPIN 304 96 In
FLAG 352 144 Vout
IOPIN 352 144 Out
FLAG -208 432 0
SYMBOL voltage -192 96 R0
WINDOW 123 0 0 Left 0
WINDOW 39 0 0 Left 0
SYMATTR InstName Vdd
SYMATTR Value 3.3
SYMBOL voltage -112 304 R90
WINDOW 3 1 -594 VRight 2
WINDOW 123 0 0 Left 0
WINDOW 39 0 0 Left 0
SYMATTR Value PULSE(0 3.3 3.90625u 1n 1n 3.90625u 7.8125u)
SYMATTR InstName A
SYMBOL voltage -112 432 R90
WINDOW 0 -32 56 VBottom 2
WINDOW 3 -13 -293 VTop 2
WINDOW 123 0 0 Left 0
WINDOW 39 0 0 Left 0
SYMATTR InstName B
SYMATTR Value PULSE(0 3.3 6.8125u 1n 1n 8.8125u 15.625u)
SYMBOL OR 240 144 R0
SYMATTR InstName X1
TEXT -48 48 Left 2 !.tran 0.1m
