Version 4
SHEET 1 880 680
WIRE 368 -288 336 -288
WIRE 32 -224 -32 -224
WIRE 208 -224 32 -224
WIRE 368 -144 336 -144
WIRE 32 -80 32 -224
WIRE 208 -80 32 -80
WIRE 368 0 336 0
WIRE 32 64 32 -80
WIRE 208 64 32 64
WIRE 368 144 336 144
WIRE 32 208 32 64
WIRE 208 208 32 208
FLAG 368 -288 D3
IOPIN 368 -288 Out
FLAG 368 -144 D2
IOPIN 368 -144 Out
FLAG 368 0 D1
IOPIN 368 0 Out
FLAG 368 144 D0
IOPIN 368 144 Out
FLAG 208 -288 B3
IOPIN 208 -288 In
FLAG 208 -144 B2
IOPIN 208 -144 In
FLAG 208 0 B1
IOPIN 208 0 In
FLAG 208 144 B0
IOPIN 208 144 In
FLAG -32 -224 Clk
IOPIN -32 -224 In
SYMBOL DFF 256 160 R0
SYMATTR InstName X1
SYMBOL DFF 256 16 R0
SYMATTR InstName X2
SYMBOL DFF 256 -128 R0
SYMATTR InstName X3
SYMBOL DFF 256 -272 R0
SYMATTR InstName X4
TEXT -88 -352 Left 2 !.ic V(B0) = 0\n.ic V(B1) = 0\n.ic V(B2) = 0\n.ic V(B3) = 0
