Version 4
SHEET 1 2408 1692
WIRE 496 160 464 160
WIRE 592 160 496 160
WIRE 496 192 464 192
WIRE 592 192 496 192
WIRE 496 224 464 224
WIRE 592 224 496 224
WIRE 496 256 464 256
WIRE 592 256 496 256
WIRE 816 272 720 272
WIRE 880 272 816 272
WIRE 592 288 464 288
WIRE 816 304 720 304
WIRE 880 304 816 304
WIRE 592 320 480 320
WIRE 816 336 720 336
WIRE 880 336 816 336
WIRE 592 352 496 352
WIRE 816 368 720 368
WIRE 880 368 816 368
WIRE 592 384 512 384
WIRE 928 672 736 672
WIRE 432 688 384 688
WIRE 512 688 512 384
WIRE 512 688 432 688
WIRE 576 688 512 688
WIRE 224 704 64 704
WIRE 928 704 736 704
WIRE 432 720 384 720
WIRE 496 720 496 352
WIRE 496 720 432 720
WIRE 576 720 496 720
WIRE 224 736 64 736
WIRE 928 736 736 736
WIRE 432 752 384 752
WIRE 480 752 480 320
WIRE 480 752 432 752
WIRE 576 752 480 752
WIRE 224 768 64 768
WIRE 928 768 736 768
WIRE 432 784 384 784
WIRE 464 784 464 288
WIRE 464 784 432 784
WIRE 576 784 464 784
WIRE -464 800 -544 800
WIRE -416 800 -464 800
WIRE 224 800 64 800
WIRE -544 832 -544 800
FLAG -352 432 0
FLAG -176 432 0
FLAG -176 352 SOC
FLAG 272 160 SOC
FLAG -352 352 Clk
FLAG 272 208 Clk
FLAG -288 256 0
FLAG -400 256 0
FLAG -400 176 Vdd
FLAG -288 176 Vss
FLAG 1040 368 Vcalc
FLAG -528 256 0
FLAG -528 176 Vref
FLAG 1232 384 Vcalc
FLAG -240 848 Vin~
FLAG 1232 416 Vin~
FLAG -544 912 0
FLAG 1264 368 Vdd
FLAG 1264 432 Vss
FLAG 1296 400 Sel
FLAG 816 368 dk0
FLAG 432 784 d0
FLAG 432 752 d1
FLAG -48 672 d0
FLAG -48 704 d1
FLAG -48 832 dk1
FLAG -48 800 dk0
FLAG 224 672 Clk
FLAG 496 160 b3
FLAG 496 192 b2
FLAG 496 224 b1
FLAG 496 256 b0
FLAG 816 336 dk1
FLAG 816 304 dk2
FLAG 816 272 dk3
FLAG -48 736 d2
FLAG -48 864 dk2
FLAG -48 928 Sel
FLAG -48 768 d3
FLAG -48 896 dk3
FLAG 432 688 d3
FLAG 432 720 d2
FLAG -416 864 SOC
FLAG -416 832 0
FLAG -464 800 Vin
FLAG 576 656 SOC
FLAG 1088 768 Vfin
FLAG 880 464 Vss
FLAG 880 400 Vdd
FLAG 880 432 Vdd
FLAG 592 416 SOC
FLAG 592 448 Vdd
FLAG 592 480 Vss
FLAG 928 864 Vss
FLAG 928 800 Vdd
FLAG 928 832 Vdd
FLAG -48 992 Vss
FLAG -48 960 Vdd
SYMBOL voltage -176 336 R0
WINDOW 3 -78 -20 VRight 2
WINDOW 123 0 0 Left 0
WINDOW 39 0 0 Left 0
SYMATTR Value PULSE(0 3.3 0 1n 1n 2u 20u)
SYMATTR InstName V1
SYMBOL voltage -352 336 R0
WINDOW 3 -53 -17 VRight 2
WINDOW 123 0 0 Left 0
WINDOW 39 0 0 Left 0
SYMATTR Value PULSE(0 3.3 1u 1n 1n 2u 4u)
SYMATTR InstName V2
SYMBOL voltage -400 160 R0
WINDOW 123 0 0 Left 0
WINDOW 39 0 0 Left 0
SYMATTR InstName V3
SYMATTR Value 3.3
SYMBOL voltage -288 160 R0
WINDOW 123 0 0 Left 0
WINDOW 39 0 0 Left 0
SYMATTR InstName V4
SYMATTR Value 0
SYMBOL voltage -528 160 R0
WINDOW 123 0 0 Left 0
WINDOW 39 0 0 Left 0
SYMATTR InstName V6
SYMATTR Value -5
SYMBOL voltage -544 816 R0
WINDOW 3 -133 155 Left 2
WINDOW 123 0 0 Left 0
WINDOW 39 0 0 Left 0
SYMATTR Value SINE(1.65 1.65 5k 0 0 90 2)
SYMATTR InstName V10
SYMBOL current_ladder4 960 368 R0
SYMATTR InstName X6
SYMBOL OpAmps\\UniversalOpAmp3 1264 400 R0
SYMATTR InstName U1
SYMBOL Register 304 752 R0
SYMATTR InstName X4
SYMBOL Shift_Right_Register 320 208 R0
SYMATTR InstName X8
SYMBOL SpecialFunctions\\sample -336 832 R0
SYMATTR InstName A1
SYMBOL Register 656 736 R0
SYMATTR InstName X16
SYMBOL current_ladder4 1008 768 R0
SYMATTR InstName X17
SYMBOL SUM 656 320 R0
SYMATTR InstName X1
SYMBOL MUX82 0 832 R0
SYMATTR InstName X3
TEXT -144 536 Left 2 !.tran 400u
TEXT 288 64 Left 2 ;Right Shift Register\nCYCLIC
TEXT 288 608 Left 2 ;DK*
TEXT -88 160 Left 2 !.ic V(dk0) = 0\n.ic V(dk1) = 0\n.ic V(dk2) = 0\n.ic V(dk3) = 0\n.ic V(d0) = 0\n.ic V(d1) = 0\n.ic V(d2) = 0\n.ic V(d3) = 0
TEXT 640 592 Left 2 ;DK*
TEXT 600 80 Left 2 ;SUM B+Dk*
TEXT -120 592 Left 2 ;Choose Dk* or Dnew*
TEXT 888 592 Left 2 ;Final Converted Voltage
TEXT -392 720 Left 2 ;Sample & Hold
TEXT 1160 296 Left 2 ;Comperator - Vin* : Vconv
TEXT 880 192 Left 2 ;DAC for comperator
