Version 4
SHEET 1 880 792
WIRE 752 -304 704 -304
WIRE 576 -240 400 -240
WIRE 752 -128 704 -128
WIRE -48 -64 -48 -112
WIRE 400 -64 400 -240
WIRE 576 -64 400 -64
WIRE 400 32 400 -64
WIRE 400 32 336 32
WIRE 752 48 704 48
WIRE 400 112 400 32
WIRE 576 112 400 112
WIRE 752 208 704 208
WIRE 400 272 400 112
WIRE 576 272 400 272
FLAG -48 16 0
FLAG 96 16 0
FLAG -48 -112 B0
IOPIN -48 -112 In
FLAG 96 -64 Clk
IOPIN 96 -64 In
FLAG 576 -304 B0
IOPIN 576 -304 In
FLAG 576 -128 D0
IOPIN 576 -128 In
FLAG 576 48 D1
IOPIN 576 48 In
FLAG 576 208 D2
IOPIN 576 208 In
FLAG 336 32 Clk
IOPIN 336 32 In
FLAG 752 -304 D0
IOPIN 752 -304 Out
FLAG 752 -128 D1
IOPIN 752 -128 Out
FLAG 752 48 D2
IOPIN 752 48 Out
FLAG 752 208 D3
IOPIN 752 208 Out
SYMBOL voltage -48 -80 R0
WINDOW 3 -56 12 VRight 2
WINDOW 123 0 0 Left 0
WINDOW 39 0 0 Left 0
SYMATTR Value PULSE(0 3.3 0 1n 1n 2u 16u 25)
SYMATTR InstName V1
SYMBOL voltage 96 -80 R0
WINDOW 3 -53 24 VRight 2
WINDOW 123 0 0 Left 0
WINDOW 39 0 0 Left 0
SYMATTR Value PULSE(0 3.3 1u 1n 1n 2u 4u 100)
SYMATTR InstName V2
SYMBOL DFF 624 -288 R0
SYMATTR InstName X1
SYMBOL DFF 624 -112 R0
SYMATTR InstName X2
SYMBOL DFF 624 64 R0
SYMATTR InstName X3
SYMBOL DFF 624 224 R0
SYMATTR InstName X4
TEXT 112 112 Left 2 !.tran 50u
TEXT 232 -224 Left 2 !.ic V(D0) = 0\n.ic V(D1) = 0\n.ic V(D2) = 0\n.ic V(D3) = 0
