Version 4
SHEET 1 956 792
WIRE 784 -304 704 -304
WIRE 864 -304 784 -304
WIRE 576 -240 400 -240
WIRE 784 -176 784 -304
WIRE 784 -176 512 -176
WIRE 512 -128 512 -176
WIRE 576 -128 512 -128
WIRE 784 -128 704 -128
WIRE 864 -128 784 -128
WIRE 400 -64 400 -240
WIRE 576 -64 400 -64
WIRE 784 -16 784 -128
WIRE 784 -16 512 -16
WIRE 400 32 400 -64
WIRE 400 32 336 32
WIRE 512 48 512 -16
WIRE 576 48 512 48
WIRE 784 48 704 48
WIRE 864 48 784 48
WIRE 400 112 400 32
WIRE 576 112 400 112
WIRE 784 144 784 48
WIRE 784 144 528 144
WIRE 528 208 528 144
WIRE 576 208 528 208
WIRE 864 208 704 208
WIRE 400 272 400 112
WIRE 576 272 400 272
FLAG 576 -304 Clock2
IOPIN 576 -304 In
FLAG 336 32 Clk
IOPIN 336 32 In
FLAG 864 -304 B3
IOPIN 864 -304 Out
FLAG 864 -128 B2
IOPIN 864 -128 Out
FLAG 864 48 B1
IOPIN 864 48 Out
FLAG 864 208 B0
IOPIN 864 208 Out
SYMBOL DFF 624 -288 R0
SYMATTR InstName X1
SYMBOL DFF 624 -112 R0
SYMATTR InstName X2
SYMBOL DFF 624 64 R0
SYMATTR InstName X3
SYMBOL DFF 624 224 R0
SYMATTR InstName X4
TEXT 128 -200 Left 2 !.ic V(Clock2) = 0\n.ic V(B0) = 0\n.ic V(B1) = 0\n.ic V(B2) = 0\n.ic V(B3) = 0
TEXT 520 -408 Left 2 ;Right Shift Register
