Version 4
SHEET 1 2408 1692
WIRE 1200 -752 992 -752
WIRE 864 -736 832 -736
WIRE 1184 -544 1008 -544
WIRE 896 -528 880 -528
WIRE 1168 -352 992 -352
WIRE 864 -336 800 -336
WIRE 1168 -144 1008 -144
WIRE 880 -128 832 -128
FLAG 960 -496 Vss
FLAG 944 -704 Vss
FLAG 944 -800 Vdd
FLAG 960 -592 Vdd
FLAG 864 -768 b0
IOPIN 864 -768 In
FLAG 880 -560 b1
IOPIN 880 -560 In
FLAG 1376 -736 dk0
IOPIN 1376 -736 Out
FLAG 1360 -528 dk1
IOPIN 1360 -528 Out
FLAG 960 -96 Vss
FLAG 944 -304 Vss
FLAG 944 -400 Vdd
FLAG 960 -192 Vdd
FLAG 864 -368 b2
IOPIN 864 -368 In
FLAG 880 -160 b3
IOPIN 880 -160 In
FLAG 1344 -336 dk2
IOPIN 1344 -336 Out
FLAG 1344 -128 dk3
IOPIN 1344 -128 Out
FLAG 832 -128 d3
IOPIN 832 -128 In
FLAG 800 -336 d2
IOPIN 800 -336 In
FLAG 832 -736 d0
IOPIN 832 -736 In
FLAG 880 -528 d1
IOPIN 880 -528 In
FLAG 1248 -192 Vdd
FLAG 1248 -400 Vdd
FLAG 1264 -592 Vdd
FLAG 1280 -800 Vdd
FLAG 1280 -672 Vss
FLAG 1264 -464 Vss
FLAG 1248 -272 Vss
FLAG 1248 -64 Vss
FLAG 1200 -720 SOC~
FLAG 1184 -512 SOC~
FLAG 1168 -320 SOC~
FLAG 1168 -112 SOC~
FLAG 528 -752 Vdd
IOPIN 528 -752 In
FLAG 528 -688 Vss
IOPIN 528 -688 In
FLAG 560 -720 SOC~
FLAG 480 -720 SOC
IOPIN 480 -720 In
SYMBOL OR 880 -752 R0
WINDOW 0 0 0 Invisible 0
SYMATTR InstName X1
SYMBOL OR 896 -544 R0
WINDOW 0 0 0 Invisible 0
SYMATTR InstName X3
SYMBOL OR 880 -352 R0
WINDOW 0 0 0 Invisible 0
SYMATTR InstName X2
SYMBOL OR 896 -144 R0
WINDOW 0 0 0 Invisible 0
SYMATTR InstName X9
SYMBOL AND 1312 -736 R0
SYMATTR InstName X12
SYMBOL AND 1296 -528 R0
SYMATTR InstName X13
SYMBOL AND 1280 -336 R0
SYMATTR InstName X14
SYMBOL AND 1280 -128 R0
SYMATTR InstName X15
SYMBOL not 512 -720 R0
SYMATTR InstName X4
TEXT 1024 -864 Left 2 ;SUM using OR
